Version 4
SHEET 1 880 680
WIRE 448 -48 272 -48
WIRE 272 -16 272 -48
WIRE 448 -16 448 -48
WIRE 272 96 272 64
WIRE 448 96 448 64
WIRE 272 112 272 96
WIRE 96 192 32 192
WIRE 224 192 176 192
WIRE 32 240 32 192
WIRE 272 240 272 208
WIRE 32 336 32 320
FLAG 272 240 0
FLAG 32 336 0
FLAG 448 96 0
FLAG 272 96 VC
FLAG 32 192 VOSC
SYMBOL nmos 224 112 R0
SYMATTR InstName M1
SYMATTR Value 2N7000
SYMATTR Prefix X
SYMBOL res 256 -32 R0
SYMATTR InstName R1
SYMATTR Value 150
SYMBOL res 192 176 R90
WINDOW 0 0 56 VBottom 2
WINDOW 3 32 56 VTop 2
SYMATTR InstName R2
SYMATTR Value 25
SYMBOL voltage 32 224 R0
WINDOW 3 -204 146 Left 2
WINDOW 123 0 0 Left 0
WINDOW 39 0 0 Left 0
SYMATTR InstName V1
SYMATTR Value PULSE(0 3.3 0 1n 1n 41n 82n)
SYMBOL voltage 448 -32 R0
WINDOW 123 0 0 Left 0
WINDOW 39 0 0 Left 0
SYMATTR InstName V2
SYMATTR Value 3.3
TEXT 320 296 Left 2 !.tran 0 1400n 1000n 1n
TEXT 184 -80 Left 2 !.inc 2N7000.sub
